ttt/ppower/bsp2.m
% This file was generated by Sparlectra exportMatPower.jl
function mpc = bsp2
%% MATPOWER Case Format : Version 2
mpc.version = '2';
%%-----  Power Flow Data  -----%%
%% system MVA base
mpc.baseMVA = 100.0;
%% bus data
mpc.bus = [
%bus	type	Pd	Qd	Gs	Bs	area	Vm	Va	baseKV	zone	Vmax	Vmin
1	1	5.0	4.0	0.0	0.0	1	1.0	0.0	110.0	1	1.1	0.9; %Bus: K1 (ID: 3a55ea36-2e9f-4d9f-8f11-6bd98eac0d9a kIdx: 1)
2	1	1.0	1.0	0.0	0.0	1	1.0	0.0	110.0	1	1.1	0.9; %Bus: K2 (ID: ba30ea20-fd00-4824-9117-4fa00026dfdc kIdx: 2)
3	1	0.0	0.3	0.0	0.0	1	1.0	0.0	110.0	1	1.1	0.9; %Bus: K3 (ID: 458e598b-1484-4216-b131-5dc8cb8ae9ec kIdx: 3)
4	3	0.0	0.0	0.0	0.0	1	1.1	0.0	110.0	1	1.1	0.9; %Bus: K4 (slack) (ID: 2c19adb4-ce5f-4b07-9d48-f405cbe21c31 kIdx: 4)
];
%% generator data
mpc.gen = [
%bus	Pg	Qg	Qmax	Qmin	Vg	mBase	status	Pmax	Pmin	Pc1	Pc2	Qc1min	Qc1max	Qc2min	Qc2max	ramp_agc	ramp_10	ramp_30	ramp_q	apf
4	0.0	0	30.0	-30.0	1.1	100.0	1	0	0	0.0	0.0	0.0	0.0	0.0	0.0	0.0	0.0	0.0	0.0	0.0; %Gen: SynchronousMachine_VGEN_#1 (ID: 2c19adb4-ce5f-4b07-9d48-f405cbe21c31)
];
%% branch data
mpc.branch = [
%fbus	tbus	r	x	b	rateA	rateB	rateC	ratio	angle	status	angmin	angmax
1	2	0.07136364	0.18636364	0.0	0	0	0	0.0	0.0	1	-360	360; %Branch: Name: L1_2, Typ: LineC (ID: 71a575f6-36b3-4409-973b-093cc6184783)
1	3	0.03568182	0.09318182	0.0	0	0	0	0.0	0.0	1	-360	360; %Branch: Name: L1_3, Typ: LineC (ID: ed8b5302-0ae4-4e63-9e93-bb4e0763b6b9)
1	4	0.03568182	0.09318182	0.0	0	0	0	0.0	0.0	1	-360	360; %Branch: Name: L1_4, Typ: LineC (ID: 54f97ac6-bcda-4973-bf93-84d78c815de3)
2	3	0.08952893	0.23380165	0.0	0	0	0	0.0	0.0	1	-360	360; %Branch: Name: L2_3, Typ: LineC (ID: 17cee3f8-d714-42a0-b538-9e5da157e913)
3	4	0.05968595	0.15586777	0.0	0	0	0	0.0	0.0	1	-360	360; %Branch: Name: L3_4, Typ: LineC (ID: bd184152-cfb9-40d2-a6a0-447306812ca5)
];
